
---------- Begin Simulation Statistics ----------
sim_seconds                                  0.003044                       # Number of seconds simulated
sim_ticks                                  3043524500                       # Number of ticks simulated
final_tick                                 3043524500                       # Number of ticks from beginning of simulation (restored from checkpoints and never reset)
sim_freq                                 1000000000000                       # Frequency of simulated ticks
host_inst_rate                                  75100                       # Simulator instruction rate (inst/s)
host_op_rate                                   143811                       # Simulator op (including micro ops) rate (op/s)
host_tick_rate                                4642216                       # Simulator tick rate (ticks/s)
host_mem_usage                                5346324                       # Number of bytes of host memory used
host_seconds                                   655.62                       # Real time elapsed on the host
sim_insts                                    49237107                       # Number of instructions simulated
sim_ops                                      94285491                       # Number of ops (including micro ops) simulated
system.voltage_domain.voltage                       1                       # Voltage in Volts
system.clk_domain.clock                           500                       # Clock period in ticks
system.mem_ctrls0.bytes_read::ruby.dir_cntrl0      2369984                       # Number of bytes read from this memory
system.mem_ctrls0.bytes_read::total           2369984                       # Number of bytes read from this memory
system.mem_ctrls0.num_reads::ruby.dir_cntrl0        37031                       # Number of read requests responded to by this memory
system.mem_ctrls0.num_reads::total              37031                       # Number of read requests responded to by this memory
system.mem_ctrls0.bw_read::ruby.dir_cntrl0    778697198                       # Total read bandwidth from this memory (bytes/s)
system.mem_ctrls0.bw_read::total            778697198                       # Total read bandwidth from this memory (bytes/s)
system.mem_ctrls0.bw_total::ruby.dir_cntrl0    778697198                       # Total bandwidth to/from this memory (bytes/s)
system.mem_ctrls0.bw_total::total           778697198                       # Total bandwidth to/from this memory (bytes/s)
system.mem_ctrls0.readReqs                      37031                       # Number of read requests accepted
system.mem_ctrls0.writeReqs                         0                       # Number of write requests accepted
system.mem_ctrls0.readBursts                    37031                       # Number of DRAM read bursts, including those serviced by the write queue
system.mem_ctrls0.writeBursts                       0                       # Number of DRAM write bursts, including those merged in the write queue
system.mem_ctrls0.bytesReadDRAM               2369984                       # Total number of bytes read from DRAM
system.mem_ctrls0.bytesReadWrQ                      0                       # Total number of bytes read from write queue
system.mem_ctrls0.bytesWritten                      0                       # Total number of bytes written to DRAM
system.mem_ctrls0.bytesReadSys                2369984                       # Total read bytes from the system interface side
system.mem_ctrls0.bytesWrittenSys                   0                       # Total written bytes from the system interface side
system.mem_ctrls0.servicedByWrQ                     0                       # Number of DRAM read bursts serviced by the write queue
system.mem_ctrls0.mergedWrBursts                    0                       # Number of DRAM write bursts merged with an existing one
system.mem_ctrls0.neitherReadNorWriteReqs            0                       # Number of requests that are neither read nor write
system.mem_ctrls0.perBankRdBursts::0             2321                       # Per bank write bursts
system.mem_ctrls0.perBankRdBursts::1             2328                       # Per bank write bursts
system.mem_ctrls0.perBankRdBursts::2             2255                       # Per bank write bursts
system.mem_ctrls0.perBankRdBursts::3             2286                       # Per bank write bursts
system.mem_ctrls0.perBankRdBursts::4             2316                       # Per bank write bursts
system.mem_ctrls0.perBankRdBursts::5             2232                       # Per bank write bursts
system.mem_ctrls0.perBankRdBursts::6             2160                       # Per bank write bursts
system.mem_ctrls0.perBankRdBursts::7             2217                       # Per bank write bursts
system.mem_ctrls0.perBankRdBursts::8             2368                       # Per bank write bursts
system.mem_ctrls0.perBankRdBursts::9             2356                       # Per bank write bursts
system.mem_ctrls0.perBankRdBursts::10            2445                       # Per bank write bursts
system.mem_ctrls0.perBankRdBursts::11            2424                       # Per bank write bursts
system.mem_ctrls0.perBankRdBursts::12            2391                       # Per bank write bursts
system.mem_ctrls0.perBankRdBursts::13            2315                       # Per bank write bursts
system.mem_ctrls0.perBankRdBursts::14            2309                       # Per bank write bursts
system.mem_ctrls0.perBankRdBursts::15            2308                       # Per bank write bursts
system.mem_ctrls0.perBankWrBursts::0                0                       # Per bank write bursts
system.mem_ctrls0.perBankWrBursts::1                0                       # Per bank write bursts
system.mem_ctrls0.perBankWrBursts::2                0                       # Per bank write bursts
system.mem_ctrls0.perBankWrBursts::3                0                       # Per bank write bursts
system.mem_ctrls0.perBankWrBursts::4                0                       # Per bank write bursts
system.mem_ctrls0.perBankWrBursts::5                0                       # Per bank write bursts
system.mem_ctrls0.perBankWrBursts::6                0                       # Per bank write bursts
system.mem_ctrls0.perBankWrBursts::7                0                       # Per bank write bursts
system.mem_ctrls0.perBankWrBursts::8                0                       # Per bank write bursts
system.mem_ctrls0.perBankWrBursts::9                0                       # Per bank write bursts
system.mem_ctrls0.perBankWrBursts::10               0                       # Per bank write bursts
system.mem_ctrls0.perBankWrBursts::11               0                       # Per bank write bursts
system.mem_ctrls0.perBankWrBursts::12               0                       # Per bank write bursts
system.mem_ctrls0.perBankWrBursts::13               0                       # Per bank write bursts
system.mem_ctrls0.perBankWrBursts::14               0                       # Per bank write bursts
system.mem_ctrls0.perBankWrBursts::15               0                       # Per bank write bursts
system.mem_ctrls0.numRdRetry                        0                       # Number of times read queue was full causing retry
system.mem_ctrls0.numWrRetry                        0                       # Number of times write queue was full causing retry
system.mem_ctrls0.totGap                   3043300500                       # Total gap between requests
system.mem_ctrls0.readPktSize::0                    0                       # Read request sizes (log2)
system.mem_ctrls0.readPktSize::1                    0                       # Read request sizes (log2)
system.mem_ctrls0.readPktSize::2                    0                       # Read request sizes (log2)
system.mem_ctrls0.readPktSize::3                    0                       # Read request sizes (log2)
system.mem_ctrls0.readPktSize::4                    0                       # Read request sizes (log2)
system.mem_ctrls0.readPktSize::5                    0                       # Read request sizes (log2)
system.mem_ctrls0.readPktSize::6                37031                       # Read request sizes (log2)
system.mem_ctrls0.writePktSize::0                   0                       # Write request sizes (log2)
system.mem_ctrls0.writePktSize::1                   0                       # Write request sizes (log2)
system.mem_ctrls0.writePktSize::2                   0                       # Write request sizes (log2)
system.mem_ctrls0.writePktSize::3                   0                       # Write request sizes (log2)
system.mem_ctrls0.writePktSize::4                   0                       # Write request sizes (log2)
system.mem_ctrls0.writePktSize::5                   0                       # Write request sizes (log2)
system.mem_ctrls0.writePktSize::6                   0                       # Write request sizes (log2)
system.mem_ctrls0.rdQLenPdf::0                  15942                       # What read queue length does an incoming req see
system.mem_ctrls0.rdQLenPdf::1                  12061                       # What read queue length does an incoming req see
system.mem_ctrls0.rdQLenPdf::2                   4972                       # What read queue length does an incoming req see
system.mem_ctrls0.rdQLenPdf::3                   1953                       # What read queue length does an incoming req see
system.mem_ctrls0.rdQLenPdf::4                    991                       # What read queue length does an incoming req see
system.mem_ctrls0.rdQLenPdf::5                    485                       # What read queue length does an incoming req see
system.mem_ctrls0.rdQLenPdf::6                    249                       # What read queue length does an incoming req see
system.mem_ctrls0.rdQLenPdf::7                    160                       # What read queue length does an incoming req see
system.mem_ctrls0.rdQLenPdf::8                    120                       # What read queue length does an incoming req see
system.mem_ctrls0.rdQLenPdf::9                     51                       # What read queue length does an incoming req see
system.mem_ctrls0.rdQLenPdf::10                    21                       # What read queue length does an incoming req see
system.mem_ctrls0.rdQLenPdf::11                    11                       # What read queue length does an incoming req see
system.mem_ctrls0.rdQLenPdf::12                     7                       # What read queue length does an incoming req see
system.mem_ctrls0.rdQLenPdf::13                     4                       # What read queue length does an incoming req see
system.mem_ctrls0.rdQLenPdf::14                     3                       # What read queue length does an incoming req see
system.mem_ctrls0.rdQLenPdf::15                     1                       # What read queue length does an incoming req see
system.mem_ctrls0.rdQLenPdf::16                     0                       # What read queue length does an incoming req see
system.mem_ctrls0.rdQLenPdf::17                     0                       # What read queue length does an incoming req see
system.mem_ctrls0.rdQLenPdf::18                     0                       # What read queue length does an incoming req see
system.mem_ctrls0.rdQLenPdf::19                     0                       # What read queue length does an incoming req see
system.mem_ctrls0.rdQLenPdf::20                     0                       # What read queue length does an incoming req see
system.mem_ctrls0.rdQLenPdf::21                     0                       # What read queue length does an incoming req see
system.mem_ctrls0.rdQLenPdf::22                     0                       # What read queue length does an incoming req see
system.mem_ctrls0.rdQLenPdf::23                     0                       # What read queue length does an incoming req see
system.mem_ctrls0.rdQLenPdf::24                     0                       # What read queue length does an incoming req see
system.mem_ctrls0.rdQLenPdf::25                     0                       # What read queue length does an incoming req see
system.mem_ctrls0.rdQLenPdf::26                     0                       # What read queue length does an incoming req see
system.mem_ctrls0.rdQLenPdf::27                     0                       # What read queue length does an incoming req see
system.mem_ctrls0.rdQLenPdf::28                     0                       # What read queue length does an incoming req see
system.mem_ctrls0.rdQLenPdf::29                     0                       # What read queue length does an incoming req see
system.mem_ctrls0.rdQLenPdf::30                     0                       # What read queue length does an incoming req see
system.mem_ctrls0.rdQLenPdf::31                     0                       # What read queue length does an incoming req see
system.mem_ctrls0.wrQLenPdf::0                      0                       # What write queue length does an incoming req see
system.mem_ctrls0.wrQLenPdf::1                      0                       # What write queue length does an incoming req see
system.mem_ctrls0.wrQLenPdf::2                      0                       # What write queue length does an incoming req see
system.mem_ctrls0.wrQLenPdf::3                      0                       # What write queue length does an incoming req see
system.mem_ctrls0.wrQLenPdf::4                      0                       # What write queue length does an incoming req see
system.mem_ctrls0.wrQLenPdf::5                      0                       # What write queue length does an incoming req see
system.mem_ctrls0.wrQLenPdf::6                      0                       # What write queue length does an incoming req see
system.mem_ctrls0.wrQLenPdf::7                      0                       # What write queue length does an incoming req see
system.mem_ctrls0.wrQLenPdf::8                      0                       # What write queue length does an incoming req see
system.mem_ctrls0.wrQLenPdf::9                      0                       # What write queue length does an incoming req see
system.mem_ctrls0.wrQLenPdf::10                     0                       # What write queue length does an incoming req see
system.mem_ctrls0.wrQLenPdf::11                     0                       # What write queue length does an incoming req see
system.mem_ctrls0.wrQLenPdf::12                     0                       # What write queue length does an incoming req see
system.mem_ctrls0.wrQLenPdf::13                     0                       # What write queue length does an incoming req see
system.mem_ctrls0.wrQLenPdf::14                     0                       # What write queue length does an incoming req see
system.mem_ctrls0.wrQLenPdf::15                     0                       # What write queue length does an incoming req see
system.mem_ctrls0.wrQLenPdf::16                     0                       # What write queue length does an incoming req see
system.mem_ctrls0.wrQLenPdf::17                     0                       # What write queue length does an incoming req see
system.mem_ctrls0.wrQLenPdf::18                     0                       # What write queue length does an incoming req see
system.mem_ctrls0.wrQLenPdf::19                     0                       # What write queue length does an incoming req see
system.mem_ctrls0.wrQLenPdf::20                     0                       # What write queue length does an incoming req see
system.mem_ctrls0.wrQLenPdf::21                     0                       # What write queue length does an incoming req see
system.mem_ctrls0.wrQLenPdf::22                     0                       # What write queue length does an incoming req see
system.mem_ctrls0.wrQLenPdf::23                     0                       # What write queue length does an incoming req see
system.mem_ctrls0.wrQLenPdf::24                     0                       # What write queue length does an incoming req see
system.mem_ctrls0.wrQLenPdf::25                     0                       # What write queue length does an incoming req see
system.mem_ctrls0.wrQLenPdf::26                     0                       # What write queue length does an incoming req see
system.mem_ctrls0.wrQLenPdf::27                     0                       # What write queue length does an incoming req see
system.mem_ctrls0.wrQLenPdf::28                     0                       # What write queue length does an incoming req see
system.mem_ctrls0.wrQLenPdf::29                     0                       # What write queue length does an incoming req see
system.mem_ctrls0.wrQLenPdf::30                     0                       # What write queue length does an incoming req see
system.mem_ctrls0.wrQLenPdf::31                     0                       # What write queue length does an incoming req see
system.mem_ctrls0.wrQLenPdf::32                     0                       # What write queue length does an incoming req see
system.mem_ctrls0.wrQLenPdf::33                     0                       # What write queue length does an incoming req see
system.mem_ctrls0.wrQLenPdf::34                     0                       # What write queue length does an incoming req see
system.mem_ctrls0.wrQLenPdf::35                     0                       # What write queue length does an incoming req see
system.mem_ctrls0.wrQLenPdf::36                     0                       # What write queue length does an incoming req see
system.mem_ctrls0.wrQLenPdf::37                     0                       # What write queue length does an incoming req see
system.mem_ctrls0.wrQLenPdf::38                     0                       # What write queue length does an incoming req see
system.mem_ctrls0.wrQLenPdf::39                     0                       # What write queue length does an incoming req see
system.mem_ctrls0.wrQLenPdf::40                     0                       # What write queue length does an incoming req see
system.mem_ctrls0.wrQLenPdf::41                     0                       # What write queue length does an incoming req see
system.mem_ctrls0.wrQLenPdf::42                     0                       # What write queue length does an incoming req see
system.mem_ctrls0.wrQLenPdf::43                     0                       # What write queue length does an incoming req see
system.mem_ctrls0.wrQLenPdf::44                     0                       # What write queue length does an incoming req see
system.mem_ctrls0.wrQLenPdf::45                     0                       # What write queue length does an incoming req see
system.mem_ctrls0.wrQLenPdf::46                     0                       # What write queue length does an incoming req see
system.mem_ctrls0.wrQLenPdf::47                     0                       # What write queue length does an incoming req see
system.mem_ctrls0.wrQLenPdf::48                     0                       # What write queue length does an incoming req see
system.mem_ctrls0.wrQLenPdf::49                     0                       # What write queue length does an incoming req see
system.mem_ctrls0.wrQLenPdf::50                     0                       # What write queue length does an incoming req see
system.mem_ctrls0.wrQLenPdf::51                     0                       # What write queue length does an incoming req see
system.mem_ctrls0.wrQLenPdf::52                     0                       # What write queue length does an incoming req see
system.mem_ctrls0.wrQLenPdf::53                     0                       # What write queue length does an incoming req see
system.mem_ctrls0.wrQLenPdf::54                     0                       # What write queue length does an incoming req see
system.mem_ctrls0.wrQLenPdf::55                     0                       # What write queue length does an incoming req see
system.mem_ctrls0.wrQLenPdf::56                     0                       # What write queue length does an incoming req see
system.mem_ctrls0.wrQLenPdf::57                     0                       # What write queue length does an incoming req see
system.mem_ctrls0.wrQLenPdf::58                     0                       # What write queue length does an incoming req see
system.mem_ctrls0.wrQLenPdf::59                     0                       # What write queue length does an incoming req see
system.mem_ctrls0.wrQLenPdf::60                     0                       # What write queue length does an incoming req see
system.mem_ctrls0.wrQLenPdf::61                     0                       # What write queue length does an incoming req see
system.mem_ctrls0.wrQLenPdf::62                     0                       # What write queue length does an incoming req see
system.mem_ctrls0.wrQLenPdf::63                     0                       # What write queue length does an incoming req see
system.mem_ctrls0.bytesPerActivate::samples         5218                       # Bytes accessed per row activation
system.mem_ctrls0.bytesPerActivate::mean   454.022231                       # Bytes accessed per row activation
system.mem_ctrls0.bytesPerActivate::gmean   243.142050                       # Bytes accessed per row activation
system.mem_ctrls0.bytesPerActivate::stdev   425.480089                       # Bytes accessed per row activation
system.mem_ctrls0.bytesPerActivate::0-127         1844     35.34%     35.34% # Bytes accessed per row activation
system.mem_ctrls0.bytesPerActivate::128-255          893     17.11%     52.45% # Bytes accessed per row activation
system.mem_ctrls0.bytesPerActivate::256-383          263      5.04%     57.49% # Bytes accessed per row activation
system.mem_ctrls0.bytesPerActivate::384-511          164      3.14%     60.64% # Bytes accessed per row activation
system.mem_ctrls0.bytesPerActivate::512-639          124      2.38%     63.01% # Bytes accessed per row activation
system.mem_ctrls0.bytesPerActivate::640-767           85      1.63%     64.64% # Bytes accessed per row activation
system.mem_ctrls0.bytesPerActivate::768-895          124      2.38%     67.02% # Bytes accessed per row activation
system.mem_ctrls0.bytesPerActivate::896-1023           88      1.69%     68.70% # Bytes accessed per row activation
system.mem_ctrls0.bytesPerActivate::1024-1151         1633     31.30%    100.00% # Bytes accessed per row activation
system.mem_ctrls0.bytesPerActivate::total         5218                       # Bytes accessed per row activation
system.mem_ctrls0.totQLat                   363563048                       # Total ticks spent queuing
system.mem_ctrls0.totMemAccLat             1057894298                       # Total ticks spent from burst creation until serviced by the DRAM
system.mem_ctrls0.totBusLat                 185155000                       # Total ticks spent in databus transfers
system.mem_ctrls0.avgQLat                     9817.80                       # Average queueing delay per DRAM burst
system.mem_ctrls0.avgBusLat                   5000.00                       # Average bus latency per DRAM burst
system.mem_ctrls0.avgMemAccLat               28567.80                       # Average memory access latency per DRAM burst
system.mem_ctrls0.avgRdBW                      778.70                       # Average DRAM read bandwidth in MiByte/s
system.mem_ctrls0.avgWrBW                        0.00                       # Average achieved write bandwidth in MiByte/s
system.mem_ctrls0.avgRdBWSys                   778.70                       # Average system read bandwidth in MiByte/s
system.mem_ctrls0.avgWrBWSys                     0.00                       # Average system write bandwidth in MiByte/s
system.mem_ctrls0.peakBW                     12800.00                       # Theoretical peak bandwidth in MiByte/s
system.mem_ctrls0.busUtil                        6.08                       # Data bus utilization in percentage
system.mem_ctrls0.busUtilRead                    6.08                       # Data bus utilization in percentage for reads
system.mem_ctrls0.busUtilWrite                   0.00                       # Data bus utilization in percentage for writes
system.mem_ctrls0.avgRdQLen                      1.78                       # Average read queue length when enqueuing
system.mem_ctrls0.avgWrQLen                      0.00                       # Average write queue length when enqueuing
system.mem_ctrls0.readRowHits                   31805                       # Number of row buffer hits during reads
system.mem_ctrls0.writeRowHits                      0                       # Number of row buffer hits during writes
system.mem_ctrls0.readRowHitRate                85.89                       # Row buffer hit rate for reads
system.mem_ctrls0.writeRowHitRate                 nan                       # Row buffer hit rate for writes
system.mem_ctrls0.avgGap                     82182.51                       # Average gap between requests
system.mem_ctrls0.pageHitRate                   85.89                       # Row buffer hit rate, read and write combined
system.mem_ctrls0_0.actEnergy                17047800                       # Energy for activate commands per rank (pJ)
system.mem_ctrls0_0.preEnergy                 9301875                       # Energy for precharge commands per rank (pJ)
system.mem_ctrls0_0.readEnergy              141258000                       # Energy for read commands per rank (pJ)
system.mem_ctrls0_0.writeEnergy                     0                       # Energy for write commands per rank (pJ)
system.mem_ctrls0_0.refreshEnergy           198338400                       # Energy for refresh commands per rank (pJ)
system.mem_ctrls0_0.actBackEnergy           746479980                       # Energy for active background per rank (pJ)
system.mem_ctrls0_0.preBackEnergy          1167331500                       # Energy for precharge background per rank (pJ)
system.mem_ctrls0_0.totalEnergy            2279757555                       # Total energy per rank (pJ)
system.mem_ctrls0_0.averagePower           750.686368                       # Core power per rank (mW)
system.mem_ctrls0_0.memoryStateTime::IDLE   1936611251                       # Time in different power states
system.mem_ctrls0_0.memoryStateTime::REF    101400000                       # Time in different power states
system.mem_ctrls0_0.memoryStateTime::PRE_PDN            0                       # Time in different power states
system.mem_ctrls0_0.memoryStateTime::ACT   1000570249                       # Time in different power states
system.mem_ctrls0_0.memoryStateTime::ACT_PDN            0                       # Time in different power states
system.mem_ctrls0_1.actEnergy                22392720                       # Energy for activate commands per rank (pJ)
system.mem_ctrls0_1.preEnergy                12218250                       # Energy for precharge commands per rank (pJ)
system.mem_ctrls0_1.readEnergy              147466800                       # Energy for read commands per rank (pJ)
system.mem_ctrls0_1.writeEnergy                     0                       # Energy for write commands per rank (pJ)
system.mem_ctrls0_1.refreshEnergy           198338400                       # Energy for refresh commands per rank (pJ)
system.mem_ctrls0_1.actBackEnergy           739834920                       # Energy for active background per rank (pJ)
system.mem_ctrls0_1.preBackEnergy          1173160500                       # Energy for precharge background per rank (pJ)
system.mem_ctrls0_1.totalEnergy            2293411590                       # Total energy per rank (pJ)
system.mem_ctrls0_1.averagePower           755.182416                       # Core power per rank (mW)
system.mem_ctrls0_1.memoryStateTime::IDLE   1946312250                       # Time in different power states
system.mem_ctrls0_1.memoryStateTime::REF    101400000                       # Time in different power states
system.mem_ctrls0_1.memoryStateTime::PRE_PDN            0                       # Time in different power states
system.mem_ctrls0_1.memoryStateTime::ACT    990650750                       # Time in different power states
system.mem_ctrls0_1.memoryStateTime::ACT_PDN            0                       # Time in different power states
system.mem_ctrls1.bytes_read::ruby.dir_cntrl1      2371008                       # Number of bytes read from this memory
system.mem_ctrls1.bytes_read::total           2371008                       # Number of bytes read from this memory
system.mem_ctrls1.num_reads::ruby.dir_cntrl1        37047                       # Number of read requests responded to by this memory
system.mem_ctrls1.num_reads::total              37047                       # Number of read requests responded to by this memory
system.mem_ctrls1.bw_read::ruby.dir_cntrl1    779033650                       # Total read bandwidth from this memory (bytes/s)
system.mem_ctrls1.bw_read::total            779033650                       # Total read bandwidth from this memory (bytes/s)
system.mem_ctrls1.bw_total::ruby.dir_cntrl1    779033650                       # Total bandwidth to/from this memory (bytes/s)
system.mem_ctrls1.bw_total::total           779033650                       # Total bandwidth to/from this memory (bytes/s)
system.mem_ctrls1.readReqs                      37047                       # Number of read requests accepted
system.mem_ctrls1.writeReqs                         0                       # Number of write requests accepted
system.mem_ctrls1.readBursts                    37047                       # Number of DRAM read bursts, including those serviced by the write queue
system.mem_ctrls1.writeBursts                       0                       # Number of DRAM write bursts, including those merged in the write queue
system.mem_ctrls1.bytesReadDRAM               2371008                       # Total number of bytes read from DRAM
system.mem_ctrls1.bytesReadWrQ                      0                       # Total number of bytes read from write queue
system.mem_ctrls1.bytesWritten                      0                       # Total number of bytes written to DRAM
system.mem_ctrls1.bytesReadSys                2371008                       # Total read bytes from the system interface side
system.mem_ctrls1.bytesWrittenSys                   0                       # Total written bytes from the system interface side
system.mem_ctrls1.servicedByWrQ                     0                       # Number of DRAM read bursts serviced by the write queue
system.mem_ctrls1.mergedWrBursts                    0                       # Number of DRAM write bursts merged with an existing one
system.mem_ctrls1.neitherReadNorWriteReqs            0                       # Number of requests that are neither read nor write
system.mem_ctrls1.perBankRdBursts::0             2318                       # Per bank write bursts
system.mem_ctrls1.perBankRdBursts::1             2335                       # Per bank write bursts
system.mem_ctrls1.perBankRdBursts::2             2253                       # Per bank write bursts
system.mem_ctrls1.perBankRdBursts::3             2290                       # Per bank write bursts
system.mem_ctrls1.perBankRdBursts::4             2317                       # Per bank write bursts
system.mem_ctrls1.perBankRdBursts::5             2234                       # Per bank write bursts
system.mem_ctrls1.perBankRdBursts::6             2163                       # Per bank write bursts
system.mem_ctrls1.perBankRdBursts::7             2220                       # Per bank write bursts
system.mem_ctrls1.perBankRdBursts::8             2359                       # Per bank write bursts
system.mem_ctrls1.perBankRdBursts::9             2339                       # Per bank write bursts
system.mem_ctrls1.perBankRdBursts::10            2457                       # Per bank write bursts
system.mem_ctrls1.perBankRdBursts::11            2429                       # Per bank write bursts
system.mem_ctrls1.perBankRdBursts::12            2400                       # Per bank write bursts
system.mem_ctrls1.perBankRdBursts::13            2314                       # Per bank write bursts
system.mem_ctrls1.perBankRdBursts::14            2309                       # Per bank write bursts
system.mem_ctrls1.perBankRdBursts::15            2310                       # Per bank write bursts
system.mem_ctrls1.perBankWrBursts::0                0                       # Per bank write bursts
system.mem_ctrls1.perBankWrBursts::1                0                       # Per bank write bursts
system.mem_ctrls1.perBankWrBursts::2                0                       # Per bank write bursts
system.mem_ctrls1.perBankWrBursts::3                0                       # Per bank write bursts
system.mem_ctrls1.perBankWrBursts::4                0                       # Per bank write bursts
system.mem_ctrls1.perBankWrBursts::5                0                       # Per bank write bursts
system.mem_ctrls1.perBankWrBursts::6                0                       # Per bank write bursts
system.mem_ctrls1.perBankWrBursts::7                0                       # Per bank write bursts
system.mem_ctrls1.perBankWrBursts::8                0                       # Per bank write bursts
system.mem_ctrls1.perBankWrBursts::9                0                       # Per bank write bursts
system.mem_ctrls1.perBankWrBursts::10               0                       # Per bank write bursts
system.mem_ctrls1.perBankWrBursts::11               0                       # Per bank write bursts
system.mem_ctrls1.perBankWrBursts::12               0                       # Per bank write bursts
system.mem_ctrls1.perBankWrBursts::13               0                       # Per bank write bursts
system.mem_ctrls1.perBankWrBursts::14               0                       # Per bank write bursts
system.mem_ctrls1.perBankWrBursts::15               0                       # Per bank write bursts
system.mem_ctrls1.numRdRetry                        0                       # Number of times read queue was full causing retry
system.mem_ctrls1.numWrRetry                        0                       # Number of times write queue was full causing retry
system.mem_ctrls1.totGap                   3043282500                       # Total gap between requests
system.mem_ctrls1.readPktSize::0                    0                       # Read request sizes (log2)
system.mem_ctrls1.readPktSize::1                    0                       # Read request sizes (log2)
system.mem_ctrls1.readPktSize::2                    0                       # Read request sizes (log2)
system.mem_ctrls1.readPktSize::3                    0                       # Read request sizes (log2)
system.mem_ctrls1.readPktSize::4                    0                       # Read request sizes (log2)
system.mem_ctrls1.readPktSize::5                    0                       # Read request sizes (log2)
system.mem_ctrls1.readPktSize::6                37047                       # Read request sizes (log2)
system.mem_ctrls1.writePktSize::0                   0                       # Write request sizes (log2)
system.mem_ctrls1.writePktSize::1                   0                       # Write request sizes (log2)
system.mem_ctrls1.writePktSize::2                   0                       # Write request sizes (log2)
system.mem_ctrls1.writePktSize::3                   0                       # Write request sizes (log2)
system.mem_ctrls1.writePktSize::4                   0                       # Write request sizes (log2)
system.mem_ctrls1.writePktSize::5                   0                       # Write request sizes (log2)
system.mem_ctrls1.writePktSize::6                   0                       # Write request sizes (log2)
system.mem_ctrls1.rdQLenPdf::0                  15864                       # What read queue length does an incoming req see
system.mem_ctrls1.rdQLenPdf::1                  12032                       # What read queue length does an incoming req see
system.mem_ctrls1.rdQLenPdf::2                   4999                       # What read queue length does an incoming req see
system.mem_ctrls1.rdQLenPdf::3                   2027                       # What read queue length does an incoming req see
system.mem_ctrls1.rdQLenPdf::4                    987                       # What read queue length does an incoming req see
system.mem_ctrls1.rdQLenPdf::5                    520                       # What read queue length does an incoming req see
system.mem_ctrls1.rdQLenPdf::6                    288                       # What read queue length does an incoming req see
system.mem_ctrls1.rdQLenPdf::7                    157                       # What read queue length does an incoming req see
system.mem_ctrls1.rdQLenPdf::8                     99                       # What read queue length does an incoming req see
system.mem_ctrls1.rdQLenPdf::9                     43                       # What read queue length does an incoming req see
system.mem_ctrls1.rdQLenPdf::10                    16                       # What read queue length does an incoming req see
system.mem_ctrls1.rdQLenPdf::11                     8                       # What read queue length does an incoming req see
system.mem_ctrls1.rdQLenPdf::12                     3                       # What read queue length does an incoming req see
system.mem_ctrls1.rdQLenPdf::13                     1                       # What read queue length does an incoming req see
system.mem_ctrls1.rdQLenPdf::14                     1                       # What read queue length does an incoming req see
system.mem_ctrls1.rdQLenPdf::15                     1                       # What read queue length does an incoming req see
system.mem_ctrls1.rdQLenPdf::16                     1                       # What read queue length does an incoming req see
system.mem_ctrls1.rdQLenPdf::17                     0                       # What read queue length does an incoming req see
system.mem_ctrls1.rdQLenPdf::18                     0                       # What read queue length does an incoming req see
system.mem_ctrls1.rdQLenPdf::19                     0                       # What read queue length does an incoming req see
system.mem_ctrls1.rdQLenPdf::20                     0                       # What read queue length does an incoming req see
system.mem_ctrls1.rdQLenPdf::21                     0                       # What read queue length does an incoming req see
system.mem_ctrls1.rdQLenPdf::22                     0                       # What read queue length does an incoming req see
system.mem_ctrls1.rdQLenPdf::23                     0                       # What read queue length does an incoming req see
system.mem_ctrls1.rdQLenPdf::24                     0                       # What read queue length does an incoming req see
system.mem_ctrls1.rdQLenPdf::25                     0                       # What read queue length does an incoming req see
system.mem_ctrls1.rdQLenPdf::26                     0                       # What read queue length does an incoming req see
system.mem_ctrls1.rdQLenPdf::27                     0                       # What read queue length does an incoming req see
system.mem_ctrls1.rdQLenPdf::28                     0                       # What read queue length does an incoming req see
system.mem_ctrls1.rdQLenPdf::29                     0                       # What read queue length does an incoming req see
system.mem_ctrls1.rdQLenPdf::30                     0                       # What read queue length does an incoming req see
system.mem_ctrls1.rdQLenPdf::31                     0                       # What read queue length does an incoming req see
system.mem_ctrls1.wrQLenPdf::0                      0                       # What write queue length does an incoming req see
system.mem_ctrls1.wrQLenPdf::1                      0                       # What write queue length does an incoming req see
system.mem_ctrls1.wrQLenPdf::2                      0                       # What write queue length does an incoming req see
system.mem_ctrls1.wrQLenPdf::3                      0                       # What write queue length does an incoming req see
system.mem_ctrls1.wrQLenPdf::4                      0                       # What write queue length does an incoming req see
system.mem_ctrls1.wrQLenPdf::5                      0                       # What write queue length does an incoming req see
system.mem_ctrls1.wrQLenPdf::6                      0                       # What write queue length does an incoming req see
system.mem_ctrls1.wrQLenPdf::7                      0                       # What write queue length does an incoming req see
system.mem_ctrls1.wrQLenPdf::8                      0                       # What write queue length does an incoming req see
system.mem_ctrls1.wrQLenPdf::9                      0                       # What write queue length does an incoming req see
system.mem_ctrls1.wrQLenPdf::10                     0                       # What write queue length does an incoming req see
system.mem_ctrls1.wrQLenPdf::11                     0                       # What write queue length does an incoming req see
system.mem_ctrls1.wrQLenPdf::12                     0                       # What write queue length does an incoming req see
system.mem_ctrls1.wrQLenPdf::13                     0                       # What write queue length does an incoming req see
system.mem_ctrls1.wrQLenPdf::14                     0                       # What write queue length does an incoming req see
system.mem_ctrls1.wrQLenPdf::15                     0                       # What write queue length does an incoming req see
system.mem_ctrls1.wrQLenPdf::16                     0                       # What write queue length does an incoming req see
system.mem_ctrls1.wrQLenPdf::17                     0                       # What write queue length does an incoming req see
system.mem_ctrls1.wrQLenPdf::18                     0                       # What write queue length does an incoming req see
system.mem_ctrls1.wrQLenPdf::19                     0                       # What write queue length does an incoming req see
system.mem_ctrls1.wrQLenPdf::20                     0                       # What write queue length does an incoming req see
system.mem_ctrls1.wrQLenPdf::21                     0                       # What write queue length does an incoming req see
system.mem_ctrls1.wrQLenPdf::22                     0                       # What write queue length does an incoming req see
system.mem_ctrls1.wrQLenPdf::23                     0                       # What write queue length does an incoming req see
system.mem_ctrls1.wrQLenPdf::24                     0                       # What write queue length does an incoming req see
system.mem_ctrls1.wrQLenPdf::25                     0                       # What write queue length does an incoming req see
system.mem_ctrls1.wrQLenPdf::26                     0                       # What write queue length does an incoming req see
system.mem_ctrls1.wrQLenPdf::27                     0                       # What write queue length does an incoming req see
system.mem_ctrls1.wrQLenPdf::28                     0                       # What write queue length does an incoming req see
system.mem_ctrls1.wrQLenPdf::29                     0                       # What write queue length does an incoming req see
system.mem_ctrls1.wrQLenPdf::30                     0                       # What write queue length does an incoming req see
system.mem_ctrls1.wrQLenPdf::31                     0                       # What write queue length does an incoming req see
system.mem_ctrls1.wrQLenPdf::32                     0                       # What write queue length does an incoming req see
system.mem_ctrls1.wrQLenPdf::33                     0                       # What write queue length does an incoming req see
system.mem_ctrls1.wrQLenPdf::34                     0                       # What write queue length does an incoming req see
system.mem_ctrls1.wrQLenPdf::35                     0                       # What write queue length does an incoming req see
system.mem_ctrls1.wrQLenPdf::36                     0                       # What write queue length does an incoming req see
system.mem_ctrls1.wrQLenPdf::37                     0                       # What write queue length does an incoming req see
system.mem_ctrls1.wrQLenPdf::38                     0                       # What write queue length does an incoming req see
system.mem_ctrls1.wrQLenPdf::39                     0                       # What write queue length does an incoming req see
system.mem_ctrls1.wrQLenPdf::40                     0                       # What write queue length does an incoming req see
system.mem_ctrls1.wrQLenPdf::41                     0                       # What write queue length does an incoming req see
system.mem_ctrls1.wrQLenPdf::42                     0                       # What write queue length does an incoming req see
system.mem_ctrls1.wrQLenPdf::43                     0                       # What write queue length does an incoming req see
system.mem_ctrls1.wrQLenPdf::44                     0                       # What write queue length does an incoming req see
system.mem_ctrls1.wrQLenPdf::45                     0                       # What write queue length does an incoming req see
system.mem_ctrls1.wrQLenPdf::46                     0                       # What write queue length does an incoming req see
system.mem_ctrls1.wrQLenPdf::47                     0                       # What write queue length does an incoming req see
system.mem_ctrls1.wrQLenPdf::48                     0                       # What write queue length does an incoming req see
system.mem_ctrls1.wrQLenPdf::49                     0                       # What write queue length does an incoming req see
system.mem_ctrls1.wrQLenPdf::50                     0                       # What write queue length does an incoming req see
system.mem_ctrls1.wrQLenPdf::51                     0                       # What write queue length does an incoming req see
system.mem_ctrls1.wrQLenPdf::52                     0                       # What write queue length does an incoming req see
system.mem_ctrls1.wrQLenPdf::53                     0                       # What write queue length does an incoming req see
system.mem_ctrls1.wrQLenPdf::54                     0                       # What write queue length does an incoming req see
system.mem_ctrls1.wrQLenPdf::55                     0                       # What write queue length does an incoming req see
system.mem_ctrls1.wrQLenPdf::56                     0                       # What write queue length does an incoming req see
system.mem_ctrls1.wrQLenPdf::57                     0                       # What write queue length does an incoming req see
system.mem_ctrls1.wrQLenPdf::58                     0                       # What write queue length does an incoming req see
system.mem_ctrls1.wrQLenPdf::59                     0                       # What write queue length does an incoming req see
system.mem_ctrls1.wrQLenPdf::60                     0                       # What write queue length does an incoming req see
system.mem_ctrls1.wrQLenPdf::61                     0                       # What write queue length does an incoming req see
system.mem_ctrls1.wrQLenPdf::62                     0                       # What write queue length does an incoming req see
system.mem_ctrls1.wrQLenPdf::63                     0                       # What write queue length does an incoming req see
system.mem_ctrls1.bytesPerActivate::samples         5285                       # Bytes accessed per row activation
system.mem_ctrls1.bytesPerActivate::mean   448.472280                       # Bytes accessed per row activation
system.mem_ctrls1.bytesPerActivate::gmean   237.943509                       # Bytes accessed per row activation
system.mem_ctrls1.bytesPerActivate::stdev   425.404179                       # Bytes accessed per row activation
system.mem_ctrls1.bytesPerActivate::0-127         1940     36.71%     36.71% # Bytes accessed per row activation
system.mem_ctrls1.bytesPerActivate::128-255          868     16.42%     53.13% # Bytes accessed per row activation
system.mem_ctrls1.bytesPerActivate::256-383          266      5.03%     58.16% # Bytes accessed per row activation
system.mem_ctrls1.bytesPerActivate::384-511          152      2.88%     61.04% # Bytes accessed per row activation
system.mem_ctrls1.bytesPerActivate::512-639          136      2.57%     63.61% # Bytes accessed per row activation
system.mem_ctrls1.bytesPerActivate::640-767           82      1.55%     65.17% # Bytes accessed per row activation
system.mem_ctrls1.bytesPerActivate::768-895          111      2.10%     67.27% # Bytes accessed per row activation
system.mem_ctrls1.bytesPerActivate::896-1023           97      1.84%     69.10% # Bytes accessed per row activation
system.mem_ctrls1.bytesPerActivate::1024-1151         1633     30.90%    100.00% # Bytes accessed per row activation
system.mem_ctrls1.bytesPerActivate::total         5285                       # Bytes accessed per row activation
system.mem_ctrls1.totQLat                   370972049                       # Total ticks spent queuing
system.mem_ctrls1.totMemAccLat             1065603299                       # Total ticks spent from burst creation until serviced by the DRAM
system.mem_ctrls1.totBusLat                 185235000                       # Total ticks spent in databus transfers
system.mem_ctrls1.avgQLat                    10013.55                       # Average queueing delay per DRAM burst
system.mem_ctrls1.avgBusLat                   5000.00                       # Average bus latency per DRAM burst
system.mem_ctrls1.avgMemAccLat               28763.55                       # Average memory access latency per DRAM burst
system.mem_ctrls1.avgRdBW                      779.03                       # Average DRAM read bandwidth in MiByte/s
system.mem_ctrls1.avgWrBW                        0.00                       # Average achieved write bandwidth in MiByte/s
system.mem_ctrls1.avgRdBWSys                   779.03                       # Average system read bandwidth in MiByte/s
system.mem_ctrls1.avgWrBWSys                     0.00                       # Average system write bandwidth in MiByte/s
system.mem_ctrls1.peakBW                     12800.00                       # Theoretical peak bandwidth in MiByte/s
system.mem_ctrls1.busUtil                        6.09                       # Data bus utilization in percentage
system.mem_ctrls1.busUtilRead                    6.09                       # Data bus utilization in percentage for reads
system.mem_ctrls1.busUtilWrite                   0.00                       # Data bus utilization in percentage for writes
system.mem_ctrls1.avgRdQLen                      1.80                       # Average read queue length when enqueuing
system.mem_ctrls1.avgWrQLen                      0.00                       # Average write queue length when enqueuing
system.mem_ctrls1.readRowHits                   31757                       # Number of row buffer hits during reads
system.mem_ctrls1.writeRowHits                      0                       # Number of row buffer hits during writes
system.mem_ctrls1.readRowHitRate                85.72                       # Row buffer hit rate for reads
system.mem_ctrls1.writeRowHitRate                 nan                       # Row buffer hit rate for writes
system.mem_ctrls1.avgGap                     82146.53                       # Average gap between requests
system.mem_ctrls1.pageHitRate                   85.72                       # Row buffer hit rate, read and write combined
system.mem_ctrls1_0.actEnergy                17380440                       # Energy for activate commands per rank (pJ)
system.mem_ctrls1_0.preEnergy                 9483375                       # Energy for precharge commands per rank (pJ)
system.mem_ctrls1_0.readEnergy              141406200                       # Energy for read commands per rank (pJ)
system.mem_ctrls1_0.writeEnergy                     0                       # Energy for write commands per rank (pJ)
system.mem_ctrls1_0.refreshEnergy           198338400                       # Energy for refresh commands per rank (pJ)
system.mem_ctrls1_0.actBackEnergy           750981555                       # Energy for active background per rank (pJ)
system.mem_ctrls1_0.preBackEnergy          1163382750                       # Energy for precharge background per rank (pJ)
system.mem_ctrls1_0.totalEnergy            2280972720                       # Total energy per rank (pJ)
system.mem_ctrls1_0.averagePower           751.086502                       # Core power per rank (mW)
system.mem_ctrls1_0.memoryStateTime::IDLE   1930021750                       # Time in different power states
system.mem_ctrls1_0.memoryStateTime::REF    101400000                       # Time in different power states
system.mem_ctrls1_0.memoryStateTime::PRE_PDN            0                       # Time in different power states
system.mem_ctrls1_0.memoryStateTime::ACT   1007177750                       # Time in different power states
system.mem_ctrls1_0.memoryStateTime::ACT_PDN            0                       # Time in different power states
system.mem_ctrls1_1.actEnergy                22559040                       # Energy for activate commands per rank (pJ)
system.mem_ctrls1_1.preEnergy                12309000                       # Energy for precharge commands per rank (pJ)
system.mem_ctrls1_1.readEnergy              147443400                       # Energy for read commands per rank (pJ)
system.mem_ctrls1_1.writeEnergy                     0                       # Energy for write commands per rank (pJ)
system.mem_ctrls1_1.refreshEnergy           198338400                       # Energy for refresh commands per rank (pJ)
system.mem_ctrls1_1.actBackEnergy           741923685                       # Energy for active background per rank (pJ)
system.mem_ctrls1_1.preBackEnergy          1171328250                       # Energy for precharge background per rank (pJ)
system.mem_ctrls1_1.totalEnergy            2293901775                       # Total energy per rank (pJ)
system.mem_ctrls1_1.averagePower           755.343825                       # Core power per rank (mW)
system.mem_ctrls1_1.memoryStateTime::IDLE   1942857000                       # Time in different power states
system.mem_ctrls1_1.memoryStateTime::REF    101400000                       # Time in different power states
system.mem_ctrls1_1.memoryStateTime::PRE_PDN            0                       # Time in different power states
system.mem_ctrls1_1.memoryStateTime::ACT    993380500                       # Time in different power states
system.mem_ctrls1_1.memoryStateTime::ACT_PDN            0                       # Time in different power states
system.mem_ctrls2.bytes_read::ruby.dir_cntrl2      2369984                       # Number of bytes read from this memory
system.mem_ctrls2.bytes_read::total           2369984                       # Number of bytes read from this memory
system.mem_ctrls2.num_reads::ruby.dir_cntrl2        37031                       # Number of read requests responded to by this memory
system.mem_ctrls2.num_reads::total              37031                       # Number of read requests responded to by this memory
system.mem_ctrls2.bw_read::ruby.dir_cntrl2    778697198                       # Total read bandwidth from this memory (bytes/s)
system.mem_ctrls2.bw_read::total            778697198                       # Total read bandwidth from this memory (bytes/s)
system.mem_ctrls2.bw_total::ruby.dir_cntrl2    778697198                       # Total bandwidth to/from this memory (bytes/s)
system.mem_ctrls2.bw_total::total           778697198                       # Total bandwidth to/from this memory (bytes/s)
system.mem_ctrls2.readReqs                      37031                       # Number of read requests accepted
system.mem_ctrls2.writeReqs                         0                       # Number of write requests accepted
system.mem_ctrls2.readBursts                    37031                       # Number of DRAM read bursts, including those serviced by the write queue
system.mem_ctrls2.writeBursts                       0                       # Number of DRAM write bursts, including those merged in the write queue
system.mem_ctrls2.bytesReadDRAM               2369984                       # Total number of bytes read from DRAM
system.mem_ctrls2.bytesReadWrQ                      0                       # Total number of bytes read from write queue
system.mem_ctrls2.bytesWritten                      0                       # Total number of bytes written to DRAM
system.mem_ctrls2.bytesReadSys                2369984                       # Total read bytes from the system interface side
system.mem_ctrls2.bytesWrittenSys                   0                       # Total written bytes from the system interface side
system.mem_ctrls2.servicedByWrQ                     0                       # Number of DRAM read bursts serviced by the write queue
system.mem_ctrls2.mergedWrBursts                    0                       # Number of DRAM write bursts merged with an existing one
system.mem_ctrls2.neitherReadNorWriteReqs            0                       # Number of requests that are neither read nor write
system.mem_ctrls2.perBankRdBursts::0             2317                       # Per bank write bursts
system.mem_ctrls2.perBankRdBursts::1             2332                       # Per bank write bursts
system.mem_ctrls2.perBankRdBursts::2             2261                       # Per bank write bursts
system.mem_ctrls2.perBankRdBursts::3             2293                       # Per bank write bursts
system.mem_ctrls2.perBankRdBursts::4             2303                       # Per bank write bursts
system.mem_ctrls2.perBankRdBursts::5             2229                       # Per bank write bursts
system.mem_ctrls2.perBankRdBursts::6             2162                       # Per bank write bursts
system.mem_ctrls2.perBankRdBursts::7             2216                       # Per bank write bursts
system.mem_ctrls2.perBankRdBursts::8             2364                       # Per bank write bursts
system.mem_ctrls2.perBankRdBursts::9             2351                       # Per bank write bursts
system.mem_ctrls2.perBankRdBursts::10            2454                       # Per bank write bursts
system.mem_ctrls2.perBankRdBursts::11            2418                       # Per bank write bursts
system.mem_ctrls2.perBankRdBursts::12            2403                       # Per bank write bursts
system.mem_ctrls2.perBankRdBursts::13            2302                       # Per bank write bursts
system.mem_ctrls2.perBankRdBursts::14            2316                       # Per bank write bursts
system.mem_ctrls2.perBankRdBursts::15            2310                       # Per bank write bursts
system.mem_ctrls2.perBankWrBursts::0                0                       # Per bank write bursts
system.mem_ctrls2.perBankWrBursts::1                0                       # Per bank write bursts
system.mem_ctrls2.perBankWrBursts::2                0                       # Per bank write bursts
system.mem_ctrls2.perBankWrBursts::3                0                       # Per bank write bursts
system.mem_ctrls2.perBankWrBursts::4                0                       # Per bank write bursts
system.mem_ctrls2.perBankWrBursts::5                0                       # Per bank write bursts
system.mem_ctrls2.perBankWrBursts::6                0                       # Per bank write bursts
system.mem_ctrls2.perBankWrBursts::7                0                       # Per bank write bursts
system.mem_ctrls2.perBankWrBursts::8                0                       # Per bank write bursts
system.mem_ctrls2.perBankWrBursts::9                0                       # Per bank write bursts
system.mem_ctrls2.perBankWrBursts::10               0                       # Per bank write bursts
system.mem_ctrls2.perBankWrBursts::11               0                       # Per bank write bursts
system.mem_ctrls2.perBankWrBursts::12               0                       # Per bank write bursts
system.mem_ctrls2.perBankWrBursts::13               0                       # Per bank write bursts
system.mem_ctrls2.perBankWrBursts::14               0                       # Per bank write bursts
system.mem_ctrls2.perBankWrBursts::15               0                       # Per bank write bursts
system.mem_ctrls2.numRdRetry                        0                       # Number of times read queue was full causing retry
system.mem_ctrls2.numWrRetry                        0                       # Number of times write queue was full causing retry
system.mem_ctrls2.totGap                   3043173500                       # Total gap between requests
system.mem_ctrls2.readPktSize::0                    0                       # Read request sizes (log2)
system.mem_ctrls2.readPktSize::1                    0                       # Read request sizes (log2)
system.mem_ctrls2.readPktSize::2                    0                       # Read request sizes (log2)
system.mem_ctrls2.readPktSize::3                    0                       # Read request sizes (log2)
system.mem_ctrls2.readPktSize::4                    0                       # Read request sizes (log2)
system.mem_ctrls2.readPktSize::5                    0                       # Read request sizes (log2)
system.mem_ctrls2.readPktSize::6                37031                       # Read request sizes (log2)
system.mem_ctrls2.writePktSize::0                   0                       # Write request sizes (log2)
system.mem_ctrls2.writePktSize::1                   0                       # Write request sizes (log2)
system.mem_ctrls2.writePktSize::2                   0                       # Write request sizes (log2)
system.mem_ctrls2.writePktSize::3                   0                       # Write request sizes (log2)
system.mem_ctrls2.writePktSize::4                   0                       # Write request sizes (log2)
system.mem_ctrls2.writePktSize::5                   0                       # Write request sizes (log2)
system.mem_ctrls2.writePktSize::6                   0                       # Write request sizes (log2)
system.mem_ctrls2.rdQLenPdf::0                  15957                       # What read queue length does an incoming req see
system.mem_ctrls2.rdQLenPdf::1                  12087                       # What read queue length does an incoming req see
system.mem_ctrls2.rdQLenPdf::2                   5015                       # What read queue length does an incoming req see
system.mem_ctrls2.rdQLenPdf::3                   1922                       # What read queue length does an incoming req see
system.mem_ctrls2.rdQLenPdf::4                    960                       # What read queue length does an incoming req see
system.mem_ctrls2.rdQLenPdf::5                    518                       # What read queue length does an incoming req see
system.mem_ctrls2.rdQLenPdf::6                    262                       # What read queue length does an incoming req see
system.mem_ctrls2.rdQLenPdf::7                    147                       # What read queue length does an incoming req see
system.mem_ctrls2.rdQLenPdf::8                     86                       # What read queue length does an incoming req see
system.mem_ctrls2.rdQLenPdf::9                     45                       # What read queue length does an incoming req see
system.mem_ctrls2.rdQLenPdf::10                    19                       # What read queue length does an incoming req see
system.mem_ctrls2.rdQLenPdf::11                     8                       # What read queue length does an incoming req see
system.mem_ctrls2.rdQLenPdf::12                     3                       # What read queue length does an incoming req see
system.mem_ctrls2.rdQLenPdf::13                     2                       # What read queue length does an incoming req see
system.mem_ctrls2.rdQLenPdf::14                     0                       # What read queue length does an incoming req see
system.mem_ctrls2.rdQLenPdf::15                     0                       # What read queue length does an incoming req see
system.mem_ctrls2.rdQLenPdf::16                     0                       # What read queue length does an incoming req see
system.mem_ctrls2.rdQLenPdf::17                     0                       # What read queue length does an incoming req see
system.mem_ctrls2.rdQLenPdf::18                     0                       # What read queue length does an incoming req see
system.mem_ctrls2.rdQLenPdf::19                     0                       # What read queue length does an incoming req see
system.mem_ctrls2.rdQLenPdf::20                     0                       # What read queue length does an incoming req see
system.mem_ctrls2.rdQLenPdf::21                     0                       # What read queue length does an incoming req see
system.mem_ctrls2.rdQLenPdf::22                     0                       # What read queue length does an incoming req see
system.mem_ctrls2.rdQLenPdf::23                     0                       # What read queue length does an incoming req see
system.mem_ctrls2.rdQLenPdf::24                     0                       # What read queue length does an incoming req see
system.mem_ctrls2.rdQLenPdf::25                     0                       # What read queue length does an incoming req see
system.mem_ctrls2.rdQLenPdf::26                     0                       # What read queue length does an incoming req see
system.mem_ctrls2.rdQLenPdf::27                     0                       # What read queue length does an incoming req see
system.mem_ctrls2.rdQLenPdf::28                     0                       # What read queue length does an incoming req see
system.mem_ctrls2.rdQLenPdf::29                     0                       # What read queue length does an incoming req see
system.mem_ctrls2.rdQLenPdf::30                     0                       # What read queue length does an incoming req see
system.mem_ctrls2.rdQLenPdf::31                     0                       # What read queue length does an incoming req see
system.mem_ctrls2.wrQLenPdf::0                      0                       # What write queue length does an incoming req see
system.mem_ctrls2.wrQLenPdf::1                      0                       # What write queue length does an incoming req see
system.mem_ctrls2.wrQLenPdf::2                      0                       # What write queue length does an incoming req see
system.mem_ctrls2.wrQLenPdf::3                      0                       # What write queue length does an incoming req see
system.mem_ctrls2.wrQLenPdf::4                      0                       # What write queue length does an incoming req see
system.mem_ctrls2.wrQLenPdf::5                      0                       # What write queue length does an incoming req see
system.mem_ctrls2.wrQLenPdf::6                      0                       # What write queue length does an incoming req see
system.mem_ctrls2.wrQLenPdf::7                      0                       # What write queue length does an incoming req see
system.mem_ctrls2.wrQLenPdf::8                      0                       # What write queue length does an incoming req see
system.mem_ctrls2.wrQLenPdf::9                      0                       # What write queue length does an incoming req see
system.mem_ctrls2.wrQLenPdf::10                     0                       # What write queue length does an incoming req see
system.mem_ctrls2.wrQLenPdf::11                     0                       # What write queue length does an incoming req see
system.mem_ctrls2.wrQLenPdf::12                     0                       # What write queue length does an incoming req see
system.mem_ctrls2.wrQLenPdf::13                     0                       # What write queue length does an incoming req see
system.mem_ctrls2.wrQLenPdf::14                     0                       # What write queue length does an incoming req see
system.mem_ctrls2.wrQLenPdf::15                     0                       # What write queue length does an incoming req see
system.mem_ctrls2.wrQLenPdf::16                     0                       # What write queue length does an incoming req see
system.mem_ctrls2.wrQLenPdf::17                     0                       # What write queue length does an incoming req see
system.mem_ctrls2.wrQLenPdf::18                     0                       # What write queue length does an incoming req see
system.mem_ctrls2.wrQLenPdf::19                     0                       # What write queue length does an incoming req see
system.mem_ctrls2.wrQLenPdf::20                     0                       # What write queue length does an incoming req see
system.mem_ctrls2.wrQLenPdf::21                     0                       # What write queue length does an incoming req see
system.mem_ctrls2.wrQLenPdf::22                     0                       # What write queue length does an incoming req see
system.mem_ctrls2.wrQLenPdf::23                     0                       # What write queue length does an incoming req see
system.mem_ctrls2.wrQLenPdf::24                     0                       # What write queue length does an incoming req see
system.mem_ctrls2.wrQLenPdf::25                     0                       # What write queue length does an incoming req see
system.mem_ctrls2.wrQLenPdf::26                     0                       # What write queue length does an incoming req see
system.mem_ctrls2.wrQLenPdf::27                     0                       # What write queue length does an incoming req see
system.mem_ctrls2.wrQLenPdf::28                     0                       # What write queue length does an incoming req see
system.mem_ctrls2.wrQLenPdf::29                     0                       # What write queue length does an incoming req see
system.mem_ctrls2.wrQLenPdf::30                     0                       # What write queue length does an incoming req see
system.mem_ctrls2.wrQLenPdf::31                     0                       # What write queue length does an incoming req see
system.mem_ctrls2.wrQLenPdf::32                     0                       # What write queue length does an incoming req see
system.mem_ctrls2.wrQLenPdf::33                     0                       # What write queue length does an incoming req see
system.mem_ctrls2.wrQLenPdf::34                     0                       # What write queue length does an incoming req see
system.mem_ctrls2.wrQLenPdf::35                     0                       # What write queue length does an incoming req see
system.mem_ctrls2.wrQLenPdf::36                     0                       # What write queue length does an incoming req see
system.mem_ctrls2.wrQLenPdf::37                     0                       # What write queue length does an incoming req see
system.mem_ctrls2.wrQLenPdf::38                     0                       # What write queue length does an incoming req see
system.mem_ctrls2.wrQLenPdf::39                     0                       # What write queue length does an incoming req see
system.mem_ctrls2.wrQLenPdf::40                     0                       # What write queue length does an incoming req see
system.mem_ctrls2.wrQLenPdf::41                     0                       # What write queue length does an incoming req see
system.mem_ctrls2.wrQLenPdf::42                     0                       # What write queue length does an incoming req see
system.mem_ctrls2.wrQLenPdf::43                     0                       # What write queue length does an incoming req see
system.mem_ctrls2.wrQLenPdf::44                     0                       # What write queue length does an incoming req see
system.mem_ctrls2.wrQLenPdf::45                     0                       # What write queue length does an incoming req see
system.mem_ctrls2.wrQLenPdf::46                     0                       # What write queue length does an incoming req see
system.mem_ctrls2.wrQLenPdf::47                     0                       # What write queue length does an incoming req see
system.mem_ctrls2.wrQLenPdf::48                     0                       # What write queue length does an incoming req see
system.mem_ctrls2.wrQLenPdf::49                     0                       # What write queue length does an incoming req see
system.mem_ctrls2.wrQLenPdf::50                     0                       # What write queue length does an incoming req see
system.mem_ctrls2.wrQLenPdf::51                     0                       # What write queue length does an incoming req see
system.mem_ctrls2.wrQLenPdf::52                     0                       # What write queue length does an incoming req see
system.mem_ctrls2.wrQLenPdf::53                     0                       # What write queue length does an incoming req see
system.mem_ctrls2.wrQLenPdf::54                     0                       # What write queue length does an incoming req see
system.mem_ctrls2.wrQLenPdf::55                     0                       # What write queue length does an incoming req see
system.mem_ctrls2.wrQLenPdf::56                     0                       # What write queue length does an incoming req see
system.mem_ctrls2.wrQLenPdf::57                     0                       # What write queue length does an incoming req see
system.mem_ctrls2.wrQLenPdf::58                     0                       # What write queue length does an incoming req see
system.mem_ctrls2.wrQLenPdf::59                     0                       # What write queue length does an incoming req see
system.mem_ctrls2.wrQLenPdf::60                     0                       # What write queue length does an incoming req see
system.mem_ctrls2.wrQLenPdf::61                     0                       # What write queue length does an incoming req see
system.mem_ctrls2.wrQLenPdf::62                     0                       # What write queue length does an incoming req see
system.mem_ctrls2.wrQLenPdf::63                     0                       # What write queue length does an incoming req see
system.mem_ctrls2.bytesPerActivate::samples         5242                       # Bytes accessed per row activation
system.mem_ctrls2.bytesPerActivate::mean   451.931324                       # Bytes accessed per row activation
system.mem_ctrls2.bytesPerActivate::gmean   240.602096                       # Bytes accessed per row activation
system.mem_ctrls2.bytesPerActivate::stdev   425.950679                       # Bytes accessed per row activation
system.mem_ctrls2.bytesPerActivate::0-127         1899     36.23%     36.23% # Bytes accessed per row activation
system.mem_ctrls2.bytesPerActivate::128-255          868     16.56%     52.79% # Bytes accessed per row activation
system.mem_ctrls2.bytesPerActivate::256-383          265      5.06%     57.84% # Bytes accessed per row activation
system.mem_ctrls2.bytesPerActivate::384-511          155      2.96%     60.80% # Bytes accessed per row activation
system.mem_ctrls2.bytesPerActivate::512-639          115      2.19%     62.99% # Bytes accessed per row activation
system.mem_ctrls2.bytesPerActivate::640-767           97      1.85%     64.84% # Bytes accessed per row activation
system.mem_ctrls2.bytesPerActivate::768-895          108      2.06%     66.90% # Bytes accessed per row activation
system.mem_ctrls2.bytesPerActivate::896-1023           99      1.89%     68.79% # Bytes accessed per row activation
system.mem_ctrls2.bytesPerActivate::1024-1151         1636     31.21%    100.00% # Bytes accessed per row activation
system.mem_ctrls2.bytesPerActivate::total         5242                       # Bytes accessed per row activation
system.mem_ctrls2.totQLat                   352778045                       # Total ticks spent queuing
system.mem_ctrls2.totMemAccLat             1047109295                       # Total ticks spent from burst creation until serviced by the DRAM
system.mem_ctrls2.totBusLat                 185155000                       # Total ticks spent in databus transfers
system.mem_ctrls2.avgQLat                     9526.56                       # Average queueing delay per DRAM burst
system.mem_ctrls2.avgBusLat                   5000.00                       # Average bus latency per DRAM burst
system.mem_ctrls2.avgMemAccLat               28276.56                       # Average memory access latency per DRAM burst
system.mem_ctrls2.avgRdBW                      778.70                       # Average DRAM read bandwidth in MiByte/s
system.mem_ctrls2.avgWrBW                        0.00                       # Average achieved write bandwidth in MiByte/s
system.mem_ctrls2.avgRdBWSys                   778.70                       # Average system read bandwidth in MiByte/s
system.mem_ctrls2.avgWrBWSys                     0.00                       # Average system write bandwidth in MiByte/s
system.mem_ctrls2.peakBW                     12800.00                       # Theoretical peak bandwidth in MiByte/s
system.mem_ctrls2.busUtil                        6.08                       # Data bus utilization in percentage
system.mem_ctrls2.busUtilRead                    6.08                       # Data bus utilization in percentage for reads
system.mem_ctrls2.busUtilWrite                   0.00                       # Data bus utilization in percentage for writes
system.mem_ctrls2.avgRdQLen                      1.70                       # Average read queue length when enqueuing
system.mem_ctrls2.avgWrQLen                      0.00                       # Average write queue length when enqueuing
system.mem_ctrls2.readRowHits                   31779                       # Number of row buffer hits during reads
system.mem_ctrls2.writeRowHits                      0                       # Number of row buffer hits during writes
system.mem_ctrls2.readRowHitRate                85.82                       # Row buffer hit rate for reads
system.mem_ctrls2.writeRowHitRate                 nan                       # Row buffer hit rate for writes
system.mem_ctrls2.avgGap                     82179.08                       # Average gap between requests
system.mem_ctrls2.pageHitRate                   85.82                       # Row buffer hit rate, read and write combined
system.mem_ctrls2_0.actEnergy                17229240                       # Energy for activate commands per rank (pJ)
system.mem_ctrls2_0.preEnergy                 9400875                       # Energy for precharge commands per rank (pJ)
[...]
system.ruby.L2Cache_Controller.MT.L1_PUTX |       39123      6.30%      6.30% |       39159      6.30%     12.60% |       38008      6.12%     18.72% |       40657      6.54%     25.26% |       40355      6.50%     31.76% |       38409      6.18%     37.94% |       38522      6.20%     44.14% |       38322      6.17%     50.31% |       38047      6.12%     56.43% |       38249      6.16%     62.59% |       38048      6.12%     68.71% |       38185      6.15%     74.86% |       38546      6.20%     81.06% |       39232      6.31%     87.38% |       39819      6.41%     93.79% |       38586      6.21%    100.00%
system.ruby.L2Cache_Controller.MT.L1_PUTX::total       621267                      
system.ruby.L2Cache_Controller.MT.L1_PUTX_old |           0      0.00%      0.00% |           0      0.00%      0.00% |           1      5.26%      5.26% |          16     84.21%     89.47% |           0      0.00%     89.47% |           0      0.00%     89.47% |           0      0.00%     89.47% |           0      0.00%     89.47% |           0      0.00%     89.47% |           0      0.00%     89.47% |           1      5.26%     94.74% |           0      0.00%     94.74% |           0      0.00%     94.74% |           0      0.00%     94.74% |           0      0.00%     94.74% |           1      5.26%    100.00%
system.ruby.L2Cache_Controller.MT.L1_PUTX_old::total           19                      
system.ruby.L2Cache_Controller.ISS.L1_GETS |           1     16.67%     16.67% |           0      0.00%     16.67% |           0      0.00%     16.67% |           1     16.67%     33.33% |           0      0.00%     33.33% |           1     16.67%     50.00% |           1     16.67%     66.67% |           0      0.00%     66.67% |           1     16.67%     83.33% |           0      0.00%     83.33% |           0      0.00%     83.33% |           0      0.00%     83.33% |           0      0.00%     83.33% |           1     16.67%    100.00% |           0      0.00%    100.00% |           0      0.00%    100.00%
system.ruby.L2Cache_Controller.ISS.L1_GETS::total            6                      
system.ruby.L2Cache_Controller.ISS.Mem_Data |        3585      6.25%      6.25% |        3594      6.27%     12.52% |        3584      6.25%     18.78% |        3594      6.27%     25.05% |        3558      6.21%     31.26% |        3577      6.24%     37.50% |        3561      6.21%     43.71% |        3564      6.22%     49.93% |        3585      6.25%     56.18% |        3579      6.24%     62.43% |        3577      6.24%     68.67% |        3585      6.25%     74.92% |        3594      6.27%     81.19% |        3594      6.27%     87.46% |        3589      6.26%     93.72% |        3598      6.28%    100.00%
system.ruby.L2Cache_Controller.ISS.Mem_Data::total        57318                      
system.ruby.L2Cache_Controller.IS.L1_GET_INSTR |          94      7.42%      7.42% |         112      8.84%     16.26% |         103      8.13%     24.39% |          87      6.87%     31.25% |          83      6.55%     37.81% |          91      7.18%     44.99% |         119      9.39%     54.38% |          83      6.55%     60.93% |          74      5.84%     66.77% |          60      4.74%     71.51% |          58      4.58%     76.09% |          74      5.84%     81.93% |          53      4.18%     86.11% |          28      2.21%     88.32% |          63      4.97%     93.29% |          85      6.71%    100.00%
system.ruby.L2Cache_Controller.IS.L1_GET_INSTR::total         1267                      
system.ruby.L2Cache_Controller.IS.L1_GETS |          14    100.00%    100.00% |           0      0.00%    100.00% |           0      0.00%    100.00% |           0      0.00%    100.00% |           0      0.00%    100.00% |           0      0.00%    100.00% |           0      0.00%    100.00% |           0      0.00%    100.00% |           0      0.00%    100.00% |           0      0.00%    100.00% |           0      0.00%    100.00% |           0      0.00%    100.00% |           0      0.00%    100.00% |           0      0.00%    100.00% |           0      0.00%    100.00% |           0      0.00%    100.00%
system.ruby.L2Cache_Controller.IS.L1_GETS::total           14                      
system.ruby.L2Cache_Controller.IS.Mem_Data |         143      6.31%      6.31% |         149      6.58%     12.89% |         143      6.31%     19.21% |         141      6.23%     25.43% |         150      6.62%     32.05% |         150      6.62%     38.68% |         148      6.53%     45.21% |         136      6.00%     51.21% |         133      5.87%     57.09% |         137      6.05%     63.13% |         142      6.27%     69.40% |         141      6.23%     75.63% |         131      5.78%     81.41% |         137      6.05%     87.46% |         140      6.18%     93.64% |         144      6.36%    100.00%
system.ruby.L2Cache_Controller.IS.Mem_Data::total         2265                      
system.ruby.L2Cache_Controller.IM.L1_GETX |        1617      6.20%      6.20% |        1656      6.35%     12.56% |        1562      5.99%     18.55% |        1616      6.20%     24.75% |        1597      6.13%     30.87% |        1633      6.26%     37.14% |        1605      6.16%     43.30% |        1656      6.35%     49.65% |        1653      6.34%     55.99% |        1656      6.35%     62.34% |        1635      6.27%     68.62% |        1652      6.34%     74.95% |        1651      6.33%     81.29% |        1633      6.26%     87.55% |        1620      6.21%     93.77% |        1625      6.23%    100.00%
system.ruby.L2Cache_Controller.IM.L1_GETX::total        26067                      
system.ruby.L2Cache_Controller.IM.Mem_Data |        5541      6.26%      6.26% |        5540      6.26%     12.51% |        5541      6.26%     18.77% |        5540      6.26%     25.02% |        5542      6.26%     31.28% |        5541      6.26%     37.54% |        5540      6.26%     43.79% |        5529      6.24%     50.04% |        5529      6.24%     56.28% |        5522      6.23%     62.51% |        5527      6.24%     68.75% |        5527      6.24%     74.99% |        5540      6.26%     81.25% |        5527      6.24%     87.49% |        5539      6.25%     93.74% |        5541      6.26%    100.00%
system.ruby.L2Cache_Controller.IM.Mem_Data::total        88566                      
system.ruby.L2Cache_Controller.SS_MB.L1_GETS |         178     41.78%     41.78% |          13      3.05%     44.84% |           6      1.41%     46.24% |          24      5.63%     51.88% |          16      3.76%     55.63% |           0      0.00%     55.63% |           0      0.00%     55.63% |          24      5.63%     61.27% |           0      0.00%     61.27% |         161     37.79%     99.06% |           4      0.94%    100.00% |           0      0.00%    100.00% |           0      0.00%    100.00% |           0      0.00%    100.00% |           0      0.00%    100.00% |           0      0.00%    100.00%
system.ruby.L2Cache_Controller.SS_MB.L1_GETS::total          426                      
system.ruby.L2Cache_Controller.SS_MB.L1_GETX |           0      0.00%      0.00% |           1      2.04%      2.04% |           0      0.00%      2.04% |           1      2.04%      4.08% |           8     16.33%     20.41% |           0      0.00%     20.41% |          10     20.41%     40.82% |           1      2.04%     42.86% |           6     12.24%     55.10% |           0      0.00%     55.10% |          11     22.45%     77.55% |           0      0.00%     77.55% |           1      2.04%     79.59% |           6     12.24%     91.84% |           3      6.12%     97.96% |           1      2.04%    100.00%
system.ruby.L2Cache_Controller.SS_MB.L1_GETX::total           49                      
system.ruby.L2Cache_Controller.SS_MB.L1_UPGRADE |           0      0.00%      0.00% |          14    100.00%    100.00% |           0      0.00%    100.00% |           0      0.00%    100.00% |           0      0.00%    100.00% |           0      0.00%    100.00% |           0      0.00%    100.00% |           0      0.00%    100.00% |           0      0.00%    100.00% |           0      0.00%    100.00% |           0      0.00%    100.00% |           0      0.00%    100.00% |           0      0.00%    100.00% |           0      0.00%    100.00% |           0      0.00%    100.00% |           0      0.00%    100.00%
system.ruby.L2Cache_Controller.SS_MB.L1_UPGRADE::total           14                      
system.ruby.L2Cache_Controller.SS_MB.L1_PUTX |           0      0.00%      0.00% |           0      0.00%      0.00% |           0      0.00%      0.00% |          16    100.00%    100.00% |           0      0.00%    100.00% |           0      0.00%    100.00% |           0      0.00%    100.00% |           0      0.00%    100.00% |           0      0.00%    100.00% |           0      0.00%    100.00% |           0      0.00%    100.00% |           0      0.00%    100.00% |           0      0.00%    100.00% |           0      0.00%    100.00% |           0      0.00%    100.00% |           0      0.00%    100.00%
system.ruby.L2Cache_Controller.SS_MB.L1_PUTX::total           16                      
system.ruby.L2Cache_Controller.SS_MB.Exclusive_Unblock |         534      6.70%      6.70% |         315      3.95%     10.65% |         434      5.44%     16.09% |        1503     18.85%     34.93% |         929     11.65%     46.58% |         494      6.19%     52.78% |         330      4.14%     56.92% |         524      6.57%     63.49% |         345      4.33%     67.81% |         370      4.64%     72.45% |         360      4.51%     76.97% |         433      5.43%     82.39% |         277      3.47%     85.87% |         429      5.38%     91.25% |         322      4.04%     95.29% |         376      4.71%    100.00%
system.ruby.L2Cache_Controller.SS_MB.Exclusive_Unblock::total         7975                      
system.ruby.L2Cache_Controller.MT_MB.L1_GETS |           6      2.17%      2.17% |           2      0.72%      2.90% |           5      1.81%      4.71% |          67     24.28%     28.99% |          90     32.61%     61.59% |          25      9.06%     70.65% |           6      2.17%     72.83% |           9      3.26%     76.09% |          21      7.61%     83.70% |          10      3.62%     87.32% |           3      1.09%     88.41% |          11      3.99%     92.39% |           4      1.45%     93.84% |           4      1.45%     95.29% |           7      2.54%     97.83% |           6      2.17%    100.00%
system.ruby.L2Cache_Controller.MT_MB.L1_GETS::total          276                      
system.ruby.L2Cache_Controller.MT_MB.L1_GETX |         983      2.71%      2.71% |        3471      9.59%     12.30% |         976      2.70%     15.00% |        1185      3.27%     18.27% |       15052     41.57%     59.83% |        1189      3.28%     63.12% |         973      2.69%     65.80% |        1060      2.93%     68.73% |        1826      5.04%     73.77% |         929      2.57%     76.34% |        3349      9.25%     85.59% |        1050      2.90%     88.49% |        1025      2.83%     91.32% |         975      2.69%     94.01% |        1077      2.97%     96.98% |        1092      3.02%    100.00%
system.ruby.L2Cache_Controller.MT_MB.L1_GETX::total        36212                      
system.ruby.L2Cache_Controller.MT_MB.L1_PUTX |           0      0.00%      0.00% |           0      0.00%      0.00% |           1     33.33%     33.33% |           0      0.00%     33.33% |           0      0.00%     33.33% |           0      0.00%     33.33% |           0      0.00%     33.33% |           0      0.00%     33.33% |           0      0.00%     33.33% |           0      0.00%     33.33% |           1     33.33%     66.67% |           0      0.00%     66.67% |           0      0.00%     66.67% |           0      0.00%     66.67% |           0      0.00%     66.67% |           1     33.33%    100.00%
system.ruby.L2Cache_Controller.MT_MB.L1_PUTX::total            3                      
system.ruby.L2Cache_Controller.MT_MB.Exclusive_Unblock |       50363      6.24%      6.24% |       51196      6.34%     12.58% |       49065      6.08%     18.66% |       53864      6.67%     25.34% |       55037      6.82%     32.16% |       49739      6.16%     38.32% |       49681      6.16%     44.47% |       49482      6.13%     50.60% |       49355      6.12%     56.72% |       49215      6.10%     62.82% |       50008      6.20%     69.01% |       49499      6.13%     75.15% |       49708      6.16%     81.31% |       50224      6.22%     87.53% |       50724      6.28%     93.81% |       49929      6.19%    100.00%
system.ruby.L2Cache_Controller.MT_MB.Exclusive_Unblock::total       807089                      
system.ruby.L2Cache_Controller.MT_IIB.L1_GET_INSTR |           0      0.00%      0.00% |           0      0.00%      0.00% |           0      0.00%      0.00% |           0      0.00%      0.00% |           1      3.70%      3.70% |           0      0.00%      3.70% |           0      0.00%      3.70% |           0      0.00%      3.70% |           0      0.00%      3.70% |           0      0.00%      3.70% |           0      0.00%      3.70% |           0      0.00%      3.70% |           0      0.00%      3.70% |           0      0.00%      3.70% |          13     48.15%     51.85% |          13     48.15%    100.00%
system.ruby.L2Cache_Controller.MT_IIB.L1_GET_INSTR::total           27                      
system.ruby.L2Cache_Controller.MT_IIB.L1_GETS |        1185     14.31%     14.31% |         530      6.40%     20.72% |         206      2.49%     23.20% |        2254     27.23%     50.43% |         239      2.89%     53.32% |         279      3.37%     56.69% |         136      1.64%     58.33% |        1558     18.82%     77.15% |         168      2.03%     79.18% |         913     11.03%     90.20% |          72      0.87%     91.07% |          74      0.89%     91.97% |          57      0.69%     92.66% |          10      0.12%     92.78% |         517      6.24%     99.02% |          81      0.98%    100.00%
system.ruby.L2Cache_Controller.MT_IIB.L1_GETS::total         8279                      
system.ruby.L2Cache_Controller.MT_IIB.L1_PUTX |           3      3.53%      3.53% |           5      5.88%      9.41% |           3      3.53%     12.94% |          36     42.35%     55.29% |           5      5.88%     61.18% |           6      7.06%     68.24% |           2      2.35%     70.59% |           1      1.18%     71.76% |           0      0.00%     71.76% |           2      2.35%     74.12% |           3      3.53%     77.65% |           1      1.18%     78.82% |           0      0.00%     78.82% |           3      3.53%     82.35% |           6      7.06%     89.41% |           9     10.59%    100.00%
system.ruby.L2Cache_Controller.MT_IIB.L1_PUTX::total           85                      
system.ruby.L2Cache_Controller.MT_IIB.WB_Data |        1053      5.91%      5.91% |         854      4.79%     10.71% |        1088      6.11%     16.81% |        1992     11.18%     28.00% |        1482      8.32%     36.32% |        1145      6.43%     42.75% |         989      5.55%     48.30% |        1140      6.40%     54.70% |        1018      5.72%     60.41% |        1018      5.72%     66.13% |        1006      5.65%     71.78% |        1089      6.11%     77.89% |         948      5.32%     83.21% |        1070      6.01%     89.22% |         930      5.22%     94.44% |         990      5.56%    100.00%
system.ruby.L2Cache_Controller.MT_IIB.WB_Data::total        17812                      
system.ruby.L2Cache_Controller.MT_IIB.WB_Data_clean |         420      7.16%      7.16% |         354      6.04%     13.20% |         357      6.09%     19.29% |         428      7.30%     26.59% |         419      7.15%     33.73% |         349      5.95%     39.68% |         363      6.19%     45.87% |         341      5.82%     51.69% |         371      6.33%     58.02% |         365      6.22%     64.24% |         366      6.24%     70.48% |         338      5.76%     76.24% |         332      5.66%     81.91% |         326      5.56%     87.47% |         357      6.09%     93.55% |         378      6.45%    100.00%
system.ruby.L2Cache_Controller.MT_IIB.WB_Data_clean::total         5864                      
system.ruby.L2Cache_Controller.MT_IIB.Unblock |          50      5.95%      5.95% |          50      5.95%     11.89% |          53      6.30%     18.19% |          49      5.83%     24.02% |          56      6.66%     30.68% |          53      6.30%     36.98% |          53      6.30%     43.28% |          56      6.66%     49.94% |          55      6.54%     56.48% |          54      6.42%     62.90% |          54      6.42%     69.32% |          62      7.37%     76.69% |          53      6.30%     83.00% |          43      5.11%     88.11% |          46      5.47%     93.58% |          54      6.42%    100.00%
system.ruby.L2Cache_Controller.MT_IIB.Unblock::total          841                      
system.ruby.L2Cache_Controller.MT_IB.WB_Data |          30      5.24%      5.24% |          35      6.12%     11.36% |          35      6.12%     17.48% |          30      5.24%     22.73% |          35      6.12%     28.85% |          34      5.94%     34.79% |          39      6.82%     41.61% |          35      6.12%     47.73% |          38      6.64%     54.37% |          40      6.99%     61.36% |          37      6.47%     67.83% |          44      7.69%     75.52% |          38      6.64%     82.17% |          27      4.72%     86.89% |          35      6.12%     93.01% |          40      6.99%    100.00%
system.ruby.L2Cache_Controller.MT_IB.WB_Data::total          572                      
system.ruby.L2Cache_Controller.MT_IB.WB_Data_clean |          20      7.43%      7.43% |          15      5.58%     13.01% |          18      6.69%     19.70% |          19      7.06%     26.77% |          21      7.81%     34.57% |          19      7.06%     41.64% |          14      5.20%     46.84% |          21      7.81%     54.65% |          17      6.32%     60.97% |          14      5.20%     66.17% |          17      6.32%     72.49% |          18      6.69%     79.18% |          15      5.58%     84.76% |          16      5.95%     90.71% |          11      4.09%     94.80% |          14      5.20%    100.00%
system.ruby.L2Cache_Controller.MT_IB.WB_Data_clean::total          269                      
system.ruby.L2Cache_Controller.MT_SB.L1_GETS |           4     10.00%     10.00% |           1      2.50%     12.50% |           1      2.50%     15.00% |          11     27.50%     42.50% |           1      2.50%     45.00% |           7     17.50%     62.50% |           5     12.50%     75.00% |           2      5.00%     80.00% |           3      7.50%     87.50% |           1      2.50%     90.00% |           1      2.50%     92.50% |           0      0.00%     92.50% |           3      7.50%    100.00% |           0      0.00%    100.00% |           0      0.00%    100.00% |           0      0.00%    100.00%
system.ruby.L2Cache_Controller.MT_SB.L1_GETS::total           40                      
system.ruby.L2Cache_Controller.MT_SB.Unblock |        1473      6.22%      6.22% |        1208      5.10%     11.32% |        1445      6.10%     17.43% |        2420     10.22%     27.65% |        1901      8.03%     35.68% |        1494      6.31%     41.99% |        1352      5.71%     47.70% |        1481      6.26%     53.95% |        1389      5.87%     59.82% |        1383      5.84%     65.66% |        1372      5.79%     71.46% |        1427      6.03%     77.48% |        1280      5.41%     82.89% |        1396      5.90%     88.79% |        1287      5.44%     94.22% |        1368      5.78%    100.00%
system.ruby.L2Cache_Controller.MT_SB.Unblock::total        23676                      

---------- End Simulation Statistics   ----------
